%RWF=/scratch/bdw2292/Gau-1_7_Index_0_GrowFragment_0-farH_in17/,42.333333333333336GB
%Nosave
%Chk=1_7_Index_0_GrowFragment_0-dma_temp.chk
%Mem=8.166666666666666GB
%Nproc=2
#P MP2/6-311G** Sp Density=MP2 MaxDisk=42.333333333333336GB 

1_7_Index_0_GrowFragment_0 Gaussian SP Calculation on node74.bme.utexas.edu

0 1
 C    1.541488   -0.521020   -0.140148
 N    0.370390   -0.918893    0.536890
 C   -0.832057   -0.289013    0.536491
 C   -1.785667   -0.645118    1.472160
 H    0.445553   -1.649926    1.261289
 C   -1.126761    0.696215   -0.521290
 C   -3.157436   -0.222665    1.623061
 N   -2.674852   -1.695641    3.257025
 C   -1.505789   -1.623125    2.525042
 C   -3.661366   -0.875950    2.705901
 C   -1.641081    1.956559   -0.190866
 C   -0.908271    0.365090   -1.865754
 C   -1.929913    2.877286   -1.197524
 C   -1.204576    1.287149   -2.865632
 C   -1.713170    2.545383   -2.535213
 C    2.408202   -1.515928   -0.604271
 C    1.901699    0.822898   -0.298474
 C    3.595403   -1.177737   -1.244036
 C    3.077257    1.155877   -0.961338
 C    3.952654    0.164630   -1.425664
 H   -2.788375   -2.330537    4.036109
 O   -0.463994   -2.280455    2.743828
 H   -1.794911    2.211974    0.854761
 H   -0.512467   -0.615618   -2.118021
 H   -2.321553    3.857335   -0.936197
 H   -1.038843    1.024194   -3.907369
 H   -1.938741    3.264451   -3.318624
 H    2.133656   -2.561039   -0.478719
 H    1.259701    1.607305    0.089964
 H    4.256891   -1.964445   -1.602071
 H    3.341708    2.204601   -1.085487
 N    5.107258    0.508465   -2.146929
 H   -3.698448    0.467359    0.990652
 H   -4.648081   -0.831832    3.146810
 H    5.841559   -0.189188   -2.081269
 H    5.477321    1.419859   -1.896212



