%RWF=/scratch/bdw2292/Gau-farH_in17/,254GB
%Nosave
%Chk=farH_in17-dma_temp.chk
%Mem=49GB
%Nproc=12
#P MP2/6-311G** Sp Density=MP2 MaxDisk=254GB 

farH_in17 Gaussian SP Calculation on node74.bme.utexas.edu

1 1
 N    1.222141    1.192159    1.178331
 N    4.167389   -1.248676    2.956171
 N   -3.911617   -1.003587    0.213999
 N   -7.538698   -0.085105    0.050315
 C    3.274054   -0.069880    1.211261
 C    4.596191   -0.551363    0.823640
 C    2.356176    0.682969    0.532301
 C    3.074425   -0.469714    2.634312
 C    5.100019   -1.284445    1.921106
 C    5.383264   -0.421474   -0.318746
 C    2.463060    1.017273   -0.897956
 C    6.348174   -1.893569    1.902215
 C    6.644095   -1.025840   -0.344445
 C    2.642095    0.021450   -1.869091
 C    2.301501    2.351595   -1.294682
 C   -0.044317    0.619802    0.894439
 C    2.712922    0.364996   -3.216715
 C    2.379725    2.690173   -2.643832
 C   -0.217533   -0.491702    0.067108
 C   -1.173849    1.207806    1.476343
 C    2.583285    1.699811   -3.606307
 C   -1.492327   -1.003848   -0.163511
 C   -2.443167    0.686560    1.270934
 C   -2.621851   -0.400458    0.400616
 C   -5.050947   -0.252816    0.209786
 C   -3.926269   -2.428331   -0.119526
 C   -6.394764   -0.982360    0.008137
 C   -7.816837    0.517684    1.350260
 C   -7.576237    0.920417   -1.012234
 C   -9.323116    0.829640    1.385567
 C   -8.870088    1.729823   -0.834457
 C  -11.262978    1.304852   -0.124819
 C    7.120413   -1.763019    0.750180
 C    7.440067   -0.863857   -1.588283
 C    9.495253   -1.302072   -2.653638
 O    2.148734   -0.187915    3.404701
 O   -5.076875    0.971777    0.399291
 O    8.668399   -1.423048   -1.479199
 O    7.041943   -0.289031   -2.590515
 N   -9.826811    0.888455   -0.033836
 H  -11.418212    1.865096   -1.045144
 H    5.061321    0.145493   -1.185130
 H    1.364995    1.167390    2.194693
 H    4.314510   -1.597091    3.896794
 H    6.715707   -2.454518    2.757991
 H    2.755386   -1.015942   -1.559934
 H    2.131278    3.111832   -0.537032
 H    2.862068   -0.408962   -3.965088
 H    2.276966    3.729146   -2.946409
 H    0.641546   -0.993385   -0.363762
 H   -1.043298    2.069142    2.127206
 H    2.646124    1.967295   -4.657844
 H   -1.581865   -1.861837   -0.820377
 H   -3.293246    1.152304    1.748901
 H   -3.343518   -2.974509    0.624840
 H   -6.543562   -1.745161    0.780425
 H   -7.216105    1.417063    1.530193
 H   -7.592673    0.391924   -1.972086
 H   -9.543558    1.795510    1.845349
 H   -9.335738    1.975294   -1.790364
 H  -11.896538    0.419577   -0.092742
 H   -3.521404   -2.612990   -1.117012
 H   -6.418057   -1.496262   -0.960615
 H   -7.576076   -0.198973    2.139214
 H   -6.715923    1.596964   -0.997377
 H   -9.904081    0.053386    1.889879
 H   -8.720206    2.653478   -0.270533
 H  -11.492726    1.954615    0.718708
 H   -4.940517   -2.816806   -0.089850
 H    8.100638   -2.224807    0.698048
 H    9.969719   -0.319411   -2.670915
 H   10.250315   -2.079258   -2.553195
 H    8.901872   -1.443103   -3.555713
 H   -9.697945   -0.070630   -0.390745



