%RWF=/scratch/bdw2292/Gau-57_Index_0-farH_in17/,16.666666666666668GB
%Nosave
%Chk=57_Index_0-dma_temp.chk
%Mem=8.333333333333334GB
%Nproc=1
#P MP2/6-311G** Sp Density=MP2 MaxDisk=16.666666666666668GB 

57_Index_0 Gaussian SP Calculation on node44.bme.utexas.edu

0 1
 H   -0.726805   -0.247726    0.772613
 C    0.000195    0.000098    0.000005
 H   -0.328139    0.891315   -0.533708
 H    0.082829   -0.831530   -0.699134
 H    0.969790    0.186770    0.460171



