%RWF=/scratch/bdw2292/Gau-34_Index_0-farH_in17/,16.666666666666668GB
%Nosave
%Chk=34_Index_0-dma_temp.chk
%Mem=8.333333333333334GB
%Nproc=1
#P MP2/6-311G** Sp Density=MP2 MaxDisk=16.666666666666668GB 

34_Index_0 Gaussian SP Calculation on node44.bme.utexas.edu

0 1
 C    1.638229   -0.258769    0.093957
 C    0.176048   -0.024145    0.016339
 C   -1.965065   -0.251219   -1.068667
 C   -2.564667    0.470510   -0.035622
 C   -0.594985   -0.502013   -1.048704
 C   -1.790317    0.944959    1.024651
 C   -0.420900    0.699462    1.053499
 O    2.112306   -0.970550   -0.964078
 O    2.364610    0.130563    0.994361
 H   -0.123401   -1.062523   -1.849132
 H   -2.255888    1.507138    1.829790
 H    0.201194    1.058654    1.867975
 H   -2.567985   -0.620530   -1.894039
 H   -3.634323    0.663018   -0.056854
 H    3.073918   -1.059485   -0.800495



