%RWF=/scratch/bdw2292/Gau-34_Index_0-farH_in17/,16.666666666666668GB
%Nosave
%Chk=34_Index_0-opt_1.chk
%Mem=8.333333333333334GB
%Nproc=1
#P opt=(Cartesian,maxcycles=400) MP2/6-31G* MaxDisk=16.666666666666668GB 

34_Index_0 Gaussian OPT Calculation on node44.bme.utexas.edu

0 1
 C    2.025900   -0.304000    0.109100
 C    0.588300   -0.062000    0.067600
 C   -1.562000   -0.272400   -0.975800
 C   -2.189200    0.431900    0.032300
 C   -0.191000   -0.523700   -0.971300
 C   -1.394700    0.887000    1.064700
 C   -0.023400    0.642700    1.081200
 O    2.693200   -1.006200   -0.882800
 O    2.704000    0.133100    1.073600
 H    0.293100   -1.081400   -1.773600
 H   -1.823800    1.445400    1.885600
 H    0.605400    0.998600    1.891100
 H   -2.158000   -0.649500   -1.811500
 H   -3.255400    0.622200    0.019900
 H    3.687700   -1.261800   -0.810100

