10
Cl 0.43949084 -0.18011248 -0.55518476
C -1.27089226 -0.16383915 -0.06501512
H -1.85439083 -0.73698052 -0.78555368
H -1.35679711 -0.6113388 0.92530546
H -1.61965021 0.8685789 -0.03750687
Cl 3.48169937 1.64957104 2.63726694
C 1.71251301 1.48232562 2.74136335
H 1.36852168 0.8478806 1.92492478
H 1.45672064 1.03045895 3.6994926
H 1.25945485 2.47034585 2.66302729
