%RWF=/scratch/bdw2292/Gau-3_24_Index_0-farH_in17/,42.333333333333336GB
%Nosave
%Chk=3_24_Index_0-opt_1.chk
%Mem=8.166666666666666GB
%Nproc=2
#P opt=(Cartesian,maxcycles=400) MP2/6-31G* MaxDisk=42.333333333333336GB 

3_24_Index_0 Gaussian OPT Calculation on node74.bme.utexas.edu

0 1
 C    4.273600   -0.723800   -0.772300
 N    3.143600   -0.079700   -1.318400
 C    1.830800   -0.220300   -0.728700
 C    1.461500   -1.339200    0.021200
 C    3.256100    0.841600   -2.453100
 C    0.850600    0.767300   -0.906100
 C    0.175900   -1.455600    0.573900
 C   -0.798700   -0.461700    0.408600
 C   -0.435200    0.645900   -0.349200
 H    2.134700   -2.177400    0.171200
 H    1.053800    1.682700   -1.453900
 C    5.632700   -0.415400   -1.457400
 O    4.248400   -1.467100    0.213100
 H    2.362000    0.793400   -3.083100
 H    3.406300    1.856200   -2.071600
 H    4.095600    0.583600   -3.101400
 H   -0.061300   -2.359000    1.133800
 H   -1.120700    1.468400   -0.508800
 H    5.593600   -0.894100   -2.443000
 H    5.761300    0.665700   -1.577200
 H   -1.737800   -0.547700    0.827800
 H    6.451500   -0.778500   -0.872100

