10
Cl -1.53884348 -0.19313637 0.67602421
Cl 1.23698934 0.39606444 -0.14723364
C 0.01554017 -0.85087831 0.14165689
H 0.38835839 -1.51737474 0.91934885
H -0.14255029 -1.39599323 -0.7887828
Cl -3.72011725 3.05703956 -2.57569935
Cl -0.79069018 2.72217984 -2.41791362
C -2.36688453 1.92045134 -2.48005654
H -2.48255436 1.32726384 -1.5734392
H -2.39184782 1.28434362 -3.3647048
