%RWF=/scratch/bdw2292/Gau-4_27_Index_0-farH_in17/,42.333333333333336GB
%Nosave
%Chk=4_27_Index_0-opt_1.chk
%Mem=8.166666666666666GB
%Nproc=2
#P opt=(Cartesian,maxcycles=400) MP2/6-31G* MaxDisk=42.333333333333336GB 

4_27_Index_0 Gaussian OPT Calculation on node74.bme.utexas.edu

0 1
 C    8.005700   -1.030300   -1.507100
 N    6.779800   -0.976400   -0.699300
 C    5.632700   -0.415400   -1.457400
 C    4.273600   -0.723800   -0.772300
 C    7.010800   -0.264600    0.572200
 H    5.593600   -0.894100   -2.443000
 H    5.761300    0.665700   -1.577200
 N    3.143600   -0.079700   -1.318400
 O    4.248400   -1.467100    0.213100
 C    9.157000   -1.719900   -0.742800
 H    7.824600   -1.602200   -2.424800
 H    8.315000   -0.020100   -1.804800
 C    8.115800   -0.946800    1.401700
 H    7.292000    0.778600    0.377000
 H    6.108300   -0.240100    1.190500
 H    8.921200   -2.768200   -0.526500
 H   10.088900   -1.660600   -1.314300
 H    8.339200   -0.364000    2.301100
 H    7.839000   -1.970000    1.680300
 H    3.241200    0.500200   -2.108000
 H    2.257400   -0.210100   -0.909900
 H    9.281000   -1.203400    0.186000
 H    8.990700   -0.994200    0.787500

