%RWF=/scratch/bdw2292/Gau-21_Index_0-farH_in17/,16.666666666666668GB
%Nosave
%Chk=21_Index_0-dma_temp.chk
%Mem=8.333333333333334GB
%Nproc=1
#P MP2/6-311G** Sp Density=MP2 MaxDisk=16.666666666666668GB 

21_Index_0 Gaussian SP Calculation on node44.bme.utexas.edu

0 1
 C   -1.108161   -0.846220   -0.049887
 C   -1.287817    0.536785   -0.010129
 C    1.108187    0.846244    0.049888
 C   -0.179614    1.382988    0.039768
 C    1.287776   -0.536784    0.010128
 C    0.179626   -1.383002   -0.039768
 H   -1.971594   -1.505542   -0.088766
 H   -2.291225    0.954879   -0.018017
 H   -0.319551    2.460523    0.070743
 H    2.291169   -0.954923    0.018013
 H    0.319544   -2.460554   -0.070744
 H    1.971676    1.505485    0.088766



