%RWF=/scratch/bdw2292/Gau-16_Index_0-farH_in17/,16.666666666666668GB
%Nosave
%Chk=16_Index_0-dma_temp.chk
%Mem=8.333333333333334GB
%Nproc=1
#P MP2/6-311G** Sp Density=MP2 MaxDisk=16.666666666666668GB 

16_Index_0 Gaussian SP Calculation on node44.bme.utexas.edu

0 1
 C    0.939754    0.035458   -0.053447
 N    2.332790    0.105632   -0.222252
 C    0.196697    1.192323    0.214150
 C    0.259792   -1.173773   -0.247001
 C   -1.191051    1.132800    0.312697
 C   -1.128154   -1.226891   -0.147306
 C   -1.864163   -0.074795    0.128665
 H    2.804813   -0.768703   -0.015735
 H    0.713316    2.140186    0.354249
 H    0.825736   -2.077116   -0.467569
 H   -1.748940    2.041002    0.527533
 H   -1.636493   -2.176686   -0.294626
 H    2.761487    0.860331    0.303723
 H   -2.946706   -0.118859    0.206729



