%RWF=/scratch/bdw2292/Gau-25_27_Index_0-farH_in17/,42.333333333333336GB
%Nosave
%Chk=25_27_Index_0-dma_temp.chk
%Mem=8.166666666666666GB
%Nproc=2
#P MP2/6-311G** Sp Density=MP2 MaxDisk=42.333333333333336GB 

25_27_Index_0 Gaussian SP Calculation on node74.bme.utexas.edu

0 1
 N   -0.272552    0.283398   -0.738620
 C    0.850913   -0.268579   -0.144615
 C    2.159973   -0.041954   -0.899560
 N    3.298862   -0.624464   -0.223365
 O    0.794414   -0.907283    0.903383
 H    2.070322   -0.516795   -1.885003
 H    2.297289    1.042983   -1.088539
 C   -1.520789    0.218381   -0.053552
 C   -4.007745    0.101823    1.217639
 C   -3.251715   -1.057798    1.039437
 C   -3.513330    1.321886    0.759485
 C   -2.016281   -1.008792    0.398979
 C   -2.270165    1.384447    0.131581
 C   -0.197358    1.136852   -1.920471
 C    4.445298   -0.641187   -1.119727
 C    3.623311    0.111136    0.992418
 H   -3.630918   -2.013538    1.391994
 H   -4.089997    2.232795    0.898786
 H   -1.430164   -1.909024    0.255570
 H   -1.876447    2.342365   -0.197982
 H   -1.191082    1.179589   -2.367024
 H    0.129963    2.157649   -1.690033
 H    0.483757    0.710498   -2.657599
 H    4.213121   -1.238972   -2.005434
 H    4.752990    0.368401   -1.449707
 H    3.879169    1.167327    0.785483
 H    2.778259    0.068639    1.677052
 H   -4.973961    0.054578    1.712576
 H    5.291579   -1.104357   -0.606444
 H    4.483364   -0.361533    1.473163



