%RWF=/scratch/bdw2292/Gau-39_Index_0-farH_in17/,16.666666666666668GB
%Nosave
%Chk=39_Index_0-dma_temp.chk
%Mem=8.333333333333334GB
%Nproc=1
#P MP2/6-311G** Sp Density=MP2 MaxDisk=16.666666666666668GB 

39_Index_0 Gaussian SP Calculation on node44.bme.utexas.edu

0 1
 O    0.602567   -0.084446    0.032241
 C   -0.604076    0.084666   -0.032285
 H   -1.054894    1.091082   -0.080715
 H   -1.315643   -0.758965   -0.046551



