%RWF=/scratch/bdw2292/Gau-7_1_Index_0_GrowFragment_0-farH_in17/,16.666666666666668GB
%Nosave
%Chk=7_1_Index_0_GrowFragment_0-opt_1.chk
%Mem=8.333333333333334GB
%Nproc=1
#P opt=(ModRedundant,maxcycles=400,Loose) MP2/6-31G* MaxDisk=16.666666666666668GB 

7_1_Index_0_GrowFragment_0 Gaussian OPT Calculation on node44.bme.utexas.edu

0 1
 C   -1.250500    0.474600   -0.352400
 C   -0.938100   -0.884100   -0.006200
 N    0.400500   -1.337700   -0.077000
 H    0.519200   -2.386800   -0.220200
 C    1.566400   -0.558500    0.029500
 C    1.596300    0.693600    0.570200
 C    2.748500   -1.062200   -0.462700
 C    2.791000    1.440600    0.621300
 C    3.950600   -0.358300   -0.432400
 C    3.948700    0.894600    0.115400
 C   -1.887700   -1.732400    0.341100
 N   -3.914200   -2.839600    0.761500
 C   -1.688300   -3.152500    0.729400
 C   -3.336600   -1.585900    0.377600
 C   -2.836400   -3.729200    0.953300
 C   -2.032000    1.314700    0.425900
 C   -0.791300    1.033100   -1.549600
 C   -2.353600    2.605500    0.075700
 C   -1.107000    2.336700   -1.917700
 C   -1.888100    3.118800   -1.103500
 H    0.712100    1.125700    0.973500
 H    2.790200   -2.065000   -0.912400
 H    2.825400    2.427900    1.044700
 H    4.864800   -0.805800   -0.840300
 H   -4.925200   -3.071400    0.881600
 O   -4.007600   -0.581100    0.127300
 H   -2.390100    0.968300    1.377000
 H   -0.174900    0.462300   -2.221800
 H   -2.965900    3.240100    0.698200
 H   -0.760300    2.788000   -2.840900
 H   -2.132100    4.124200   -1.387600
 N    5.145400    1.643500    0.164800
 H   -0.721900   -3.621500    0.810200
 H   -2.964500   -4.778400    1.255800
 H    5.671100    1.857900   -0.706400
 H    5.536400    2.000600    1.060100

11 2 1 16 F
5 3 2 11 F
2 3 5 6 F
14 11 2 3 F
35 32 10 8 F

