%RWF=/scratch/bdw2292/Gau-16_1_Index_0_GrowFragment_2-farH_in17/,16.666666666666668GB
%Nosave
%Chk=16_1_Index_0_GrowFragment_2-dma_temp.chk
%Mem=8.333333333333334GB
%Nproc=1
#P MP2/6-311G** Sp Density=MP2 MaxDisk=16.666666666666668GB 

16_1_Index_0_GrowFragment_2 Gaussian SP Calculation on node44.bme.utexas.edu

0 1
 C    2.307559    1.091831    0.465807
 C    1.378193    0.076967    0.191493
 N    0.009609    0.424546    0.130286
 H   -0.267956    0.959884    0.950630
 C   -0.951312   -0.624168   -0.153495
 C    1.868480   -1.196858   -0.119073
 C    3.669930    0.828638    0.502070
 C    3.239960   -1.453660   -0.101955
 C    4.162400   -0.446144    0.189106
 H    1.945230    2.096622    0.675417
 H    1.190233   -2.015371   -0.337881
 H    4.366468    1.633653    0.730888
 H    3.597044   -2.455158   -0.336541
 N    5.540077   -0.728936    0.275205
 C   -2.364836   -0.092547   -0.208812
 C   -2.646137    1.275768   -0.251092
 C   -3.430311   -1.000100   -0.179994
 C   -3.967527    1.724431   -0.286564
 C   -4.748859   -0.554085   -0.222764
 C   -5.022250    0.814024   -0.267297
 H   -1.828131    1.988091   -0.302703
 H   -3.223536   -2.068217   -0.128843
 H   -4.171072    2.791925   -0.323352
 H   -5.564058   -1.273215   -0.203798
 H   -6.050297    1.165906   -0.293323
 H   -0.688606   -1.052690   -1.129254
 H   -0.911010   -1.456596    0.571371
 H    6.117449    0.092416    0.123547
 H    5.829421   -1.465710   -0.360609



