%RWF=/scratch/bdw2292/Gau-74_Index_0-farH_in17/,16.666666666666668GB
%Nosave
%Chk=74_Index_0-dma_temp.chk
%Mem=8.333333333333334GB
%Nproc=1
#P MP2/6-311G** Sp Density=MP2 MaxDisk=16.666666666666668GB 

74_Index_0 Gaussian SP Calculation on node44.bme.utexas.edu

0 1
 H   -0.629171   -0.668177   -0.464172
 N    0.000041   -0.000019    0.000025
 H   -0.486161    0.431584    0.796874
 H    0.277329    0.730562   -0.668705
 H    0.837431   -0.493711    0.335660



