%RWF=/scratch/bdw2292/Gau-ModifiedRes/,254GB
%Nosave
%Chk=ModifiedRes-dma_temp.chk
%Mem=51GB
%Nproc=12
#P MP2/6-311G** Sp Density=MP2 MaxDisk=254GB 

ModifiedRes Gaussian SP Calculation on node74.bme.utexas.edu

0 1
 H    1.276475    1.009101   -0.465831
 H    0.839109    1.119440    1.243355
 C    0.779343    0.490001    0.356539
 S    1.596324   -1.115366    0.672376
 C    3.153444   -0.526577    0.984660
 N    4.254606   -0.146079    1.199990
 C   -1.828375   -1.373071   -1.469133
 O   -2.849840   -1.424486   -0.779956
 N   -0.764889   -0.579902   -1.192962
 H    0.008982   -0.560785   -1.848155
 C   -0.677045    0.225766    0.017757
 H   -1.165750   -0.345933    0.817864
 C   -1.406580    1.578320   -0.110152
 O   -0.843653    2.637338    0.165295
 N   -2.692166    1.473809   -0.520269
 H   -1.695195   -1.979038   -2.379336
 H   -3.150214    0.568367   -0.561973
 H   -3.246431    2.320247   -0.530845



