%RWF=/scratch/bdw2292/Gau-3_24_Index_0-farH_in17/,42.333333333333336GB
%Nosave
%Chk=3_24_Index_0-dma_temp.chk
%Mem=8.166666666666666GB
%Nproc=2
#P MP2/6-311G** Sp Density=MP2 MaxDisk=42.333333333333336GB 

3_24_Index_0 Gaussian SP Calculation on node74.bme.utexas.edu

0 1
 C    1.994302   -0.211658   -0.070296
 N    0.854904    0.202014   -0.741038
 C   -0.415940    0.072107   -0.110303
 C   -0.821393   -1.156860    0.421218
 C    0.922958    0.996407   -1.962907
 C   -1.279785    1.170916   -0.059433
 C   -2.079644   -1.272914    1.006004
 C   -2.948028   -0.181318    1.050856
 C   -2.543440    1.039792    0.514644
 H   -0.148669   -2.005269    0.383369
 H   -0.960431    2.133312   -0.450050
 C    3.316196    0.070591   -0.754926
 O    1.947669   -0.791804    1.013989
 H   -0.034319    0.909822   -2.477604
 H    1.124709    2.057211   -1.771405
 H    1.698374    0.608514   -2.623250
 H   -2.387578   -2.229719    1.419822
 H   -3.207910    1.899428    0.549244
 H    3.408947   -0.490322   -1.689542
 H    3.444699    1.131763   -0.983577
 H   -3.930916   -0.281515    1.503392
 H    4.101976   -0.249207   -0.071945



