%RWF=/scratch/bdw2292/Gau-40_Index_0-farH_in17/,16.666666666666668GB
%Nosave
%Chk=40_Index_0-dma_temp.chk
%Mem=8.333333333333334GB
%Nproc=1
#P MP2/6-311G** Sp Density=MP2 MaxDisk=16.666666666666668GB 

40_Index_0 Gaussian SP Calculation on node44.bme.utexas.edu

0 1
 N    0.046433    0.136605   -0.285468
 C   -0.967002    0.982374    0.427373
 C   -0.459447   -1.247387   -0.560132
 C    1.379294    0.127420    0.422134
 H    0.194304    0.579704   -1.200943
 H   -1.931533    0.867340   -0.065142
 H   -0.638072    2.020078    0.402206
 H    0.313568   -1.802372   -1.090509
 H   -1.359666   -1.178187   -1.169295
 H    1.422814    0.966636    1.113804
 H    1.454322   -0.797797    0.992843
 H    2.180087    0.176977   -0.313228
 H   -1.036779    0.631495    1.457093
 H   -0.682727   -1.723604    0.394027



